* C:\Users\temp\Desktop\git\SeniorDesign\HardwareScripts\MPS_Sim\MPQ4214_SteadyState\MPQ4214_steady state_20190524.sxsch
*#SIMETRIX
.node_map VOUT 38
*.ac DEC 25 1k 1Meg
.print
+ ALL
.options
+ PSP_NPT=1001
+ POP_ITRMAX=20
+ POP_OUTPUT_CYCLES=5
+ SNAPSHOT_INTVL=0
+ NEW_ANALYSIS
+ MIN_AVG_TOPOLOGY_DUR=1a
+ AVG_TOPOLOGY_DUR_MEASUREMENT_WINDOW=128
.pop
+ TRIG_GATE={TRIG_GATE}
+ TRIG_COND=0_TO_1
+ MAX_PERIOD=20m
+ CONVERGENCE=100n
+ CYCLES_BEFORE_LAUNCH=500
+ TD_RUN_AFTER_POP_FAILS=-1
*.tran 5m 0

.SUBCKT MPQ4214  100 107 102 116 114 115 125 103 101 132 144 143 137 129 131 127
+ 123 117 111 139 140 141 142 VARS: Freq=400 Vref=0.5 Ilimit=5 Dither='NO'  OCP_MODE='HICCUP' OVP_MODE='Latchoff'
*#LABELS,Frequency (kHz) :LIST:200|300|400|600,Vref (V)::0.5, Current Limit (A) :LIST:2.6|3.2|3.8|4.4|5|5.6|6.2|6.8 ,Dither Select :list: 'NO'|'YES', OCP MODE Select:LIST:'HICCUP'|'Latchoff'|'cycle_by_cycle',OVP MODE Select:LIST:'Disharge'|'Latchoff'|'no_protection'


*
?@@--START ENCRYPTION: "MPS MPQ4214 Encryption"
?@@GQ59u5SiT0Pd2ntDIPzA6MPq0iEZ2yeKzkG0zIAZT6S1khAjL1/8vyrZ3QpVIZoIJnON?##
?@@Xl+iizicY6dcqe9chJJQQOf2CWi4zOsYHIu5wpTNfHizkT4DmYFYLtlL6eB2ZTByO2LZ?##
?@@rxeng7MoD8TsXoHfyjbh5EbBvDwFE345qflyzIpIFspXIFM2hL6B3KbQwaK+zE/jmETZ?##
?@@+Is3uJsXextby/TW2ZJO+iheYOwltjN5v31Btg4pejQRvn85B5Mli8Ee9jw/+FOgZoUJ?##
?@@SaoqUJD5i8JSz+0o141j7dHgty9pD+Kk2owOVWyrSL+1AENAU0MEkJk5nGrpicvwJGuA?##
?@@NgfAwRvNCFfqRpgrksUjr7Q1mA9lfE09tMLqRAjYoODo4UbaUXKJFGoYzRkDtxd4LrE2?##
?@@e1jlktB8+C9eyo92zNJ1s8zG1zI+hzCVNPMWWtsxQuT4tfoyOY085puWFv+QgNutlHsg?##
?@@wKoKZEq40iKIJZwP5s/kzQrAOdzWFpeMAgKkv9KZnLTjArxtPTA69ZdRkqH0p66TTrsd?##
?@@BWIY1kKuX+NtCTKKURLKhacPdx29P1PurogutdOwLIXIh4Ztk2zYa9NOokdDFEGjPpfp?##
?@@ygDJ14JiZqkDL4Ra8r+NTwBOBoZQBgv6eoWk02uv8lLETwjn8CH8VxTl060cOJ/QHe4j?##
?@@v6H3CxmrDfAIDzciV1uAMAwSQv2emLPIEXZRzRsuP9OOdp13eVURwPRc6X9WQP9KYGiK?##
?@@qNtAGyRdD/+l7punZTF4RFHXXNeAZl60d5Qcd6cFkKrv4/UoJKHaf3+g+V3qWOG/Sq0X?##
?@@qeRTc94yTp/iwo/oTIxwNggrcV+kkMV1WYZJ5BJA8Mkld5dJ5HZEXSn/4WTUqOMnrM1c?##
?@@NgfAwSxozW7U7C83MPJ0ubvFowkpv/vV//BAqdBj42zpFIGU8xhvhWhjclUojzrfB6AX?##
?@@f3sx8/PeGEdzx3kQAB6EDzyYreXXMiUX9IyxNqlxCv77DReS8Fe/Lwxm9rD9mrecYQyo?##
?@@pLn0ucRB5tREmnlqrPapvuGITafLbKuNwFd0mVWdQXuGEOfiGx8Zb8iNfCZaX6kxh4LE?##
?@@6QoZizQ7wR9X/XxIY1fCKsao1Vdk96F2EfanawITH8+58mgB7vwjKvCoQw+j/YfIN58E?##
?@@sjH/ji8flwaLrr8R6FqZitozwtYKb20R96SKMe/GDhdOytn8QqqCdfbE7fbrSxRCWAxD?##
?@@Gx+8bwsmPt0SvuefPjC4XKOtap2HhBrNBCoWRH82tlezarzav2egNv/ixxrp6S3FbC6+?##
?@@nHRb9qptfFO9d4x/nJOUYdGU8MmLxzyzsjUelb/T8ba2YIug1G/M3ERWycoyJBQ90C7/?##
?@@zRkC4J+rGwbZTzAF86Z0rKrpYB74ATloq2s1EXcrezOuIjlGowS6x4L6t132ivfBarvm?##
?@@mmM1RVO0nHUzgFjAHXiwLV+9fTToJi7wUSwJTrkhbMEdX0PlfPHEaOy7DR+fTNPe32xd?##
?@@E9ojrAmu/VpG/DI35JCXsfDcyLIfXwqyCGO9IST98CMDzE6qO2zJ5xSixt/TmEHNhRTh?##
?@@zBHviORcUe1GmXcpJAvnsddUgFt3LY/RAU/4pEaXgjsQh21Zwn8l1Cy+3XZiP2EFDqiA?##
?@@gYxYpFAFnrgWA6oMOQvtrRMavGTvnu6X/7GofwlT9Kb5x5jroidD8fazFlGRSVtYpM4o?##
?@@2on7XemvEtOJMS46042cchgbL4kBr847qvNUlVg4XMJ0D/h53otSD/MEIH0ynGV5jVTE?##
?@@n46U/4ZatlrrjuvIAgCW5P94+mhzNwujKz0YUgQ5kNbse1wqsqMxavuIzKi7F+K6pmSE?##
?@@XE6V38vPrkb+3Kv4ran3pYImQhJtB31cdoxUnqpG76mZHYMna/w+VOfWgCyUrqitZgn8?##
?@@GQ6WvgPgjN07JBiVP+4GncWi8x1yOdhC4RTLB3hnzsgcNwsHB8JefTL2BCqGAdnaqLxl?##
?@@psoaauv/9yFVsSFd6YSh6sgCKSZyxkusI4eKtMqwd/XqqVwJLOhBzinjBmuSqc01i2eP?##
?@@UwDpw5JieVE/ybW9luIeRjsS/YAw1cTJz2vYIZzxa+Kw73UVHil1Cb5znOVORmmuZVlU?##
?@@MNNNrs13mBr1B7dvEeHf9INZTM49O8RcCDQ/TTqoJyki5XKqwd0otTEbbCM6f6gsW3AY?##
?@@CYRlOIIciPxq750CM+JzowdgkILWrP+VUfjQ2Rq2KubDvUT+qA5iCoJOoIT/YqmPBKic?##
?@@xt19doZNqt18PPj62OqCSgJZRVkzkZ1oIuYH3Zx+Y6pK/abDgAONAW8K7XX6fqpXe71+?##
?@@R5kEn8Aoax/BBLfd122y2YdvTxvCvvnOAuchwzrPsacI1H3XIyAeQa3aDebSEL4V2dR3?##
?@@8Eaf9VmIOCx2xFugzkr9vLOPJ/S9WLYBXrmvmLo66K5Nh+R94765SJjfIfYyx6sOyLTZ?##
?@@3aM0ZheuksvMmRgUd2xUD62DIZ5+1lVb0XwzroehjbPIarfu+G96qCuSmJbTmxuCOTQm?##
?@@hre3Xjsd1C0ROdvXWHkb3g8F0RgVGBy2nAa3ppllvAJlfkD1IeM+km0A//ZCAhiu82TA?##
?@@g51+Va9kL8jB5MYsR1qj4dDsr2nybKKQ/ta+XXpd7m9qZ1tqpwLu2QjseyUFx+CsIvFW?##
?@@JGxoil3gCc0rmm1do2zg9mIhwkWBvpeVeK41BlIHwYixeW3bYb9DAaNZ7+T+IOb6sVgX?##
?@@FetKXP+4T5kv5Fu1LWxjLMyknZjli5b7CvvpT9TB/xqJjUTVnM/ZGmJRzyL/fSGFjL+o?##
?@@hre3XmvmqZjyFpqA1u6H0EzmLOMpwQyxCFr0PqgV13m5hCqIkldai7782KvPGGSThDKf?##
?@@l0n8PPLrIZ9thHQ8JrfNzfbGZxU84bjcR3Ws3fjrb7pUHSH5Yr57zEzSNCBShSQMlNJn?##
?@@VAn8HCFUZl8rIdmVpvhMBhWU6j1dTflP/5MNlYEmCwXhArNmBA8YxM+JbUHFWnLTcmEE?##
?@@vZDRWmHEtn42+uavU8YHOG/RwuxfgWTnDTvSeWY4sD029BvWJHUSqGByMoP41821zDzl?##
?@@Jn2OO7xt+++nMvrF/mlywC2F2Sfc4thcIBpK/j4OUit3gYWyd87gvEv4QnRYaD++Gar5?##
?@@M+2Gt0MBfkCap3aTvMeGf/qZ6L365ntaCXvB1cCf4qnK/KYkdY24zYVj0VBzl03P+y2j?##
?@@tEIlP5Z+Mn7matioguJgDmrse0Cd3Syp2zyscGkx1mEPBKiLq4a29CIZy6MXvstzfTDh?##
?@@lTjVjDKD5/iuATIpaHo3TbAtMGjtDV1N5jyGNwUrzxDQ5+x+E1fK+2/+cen7D0czphkK?##
?@@rg+zLTslCFZp6jMm74QI9fNrPJHC/j6UaKuPP8aaSnEBfg5IC0aHN+MoP+jOQpp8EgEB?##
?@@ywjcMPBC7zvoI1oHG4g79iHRrpOIOqQ65KKYdLWtbZaHmWxMoJjbr6LyoJ9YNeOnhOH3?##
?@@qNtAG2XKziDD6bg+deWu++6oBrvaQlxjfFyqNtGMxWvfBHEhhlsMzKLDFTTWfa3gcnS3?##
?@@tUs4l8LzsHXYDMwF3eZyyLBc0bJuAl0zfOgsJAm88k7n8X2xvvMOA8Grj5JbWLts0lhY?##
?@@jvxQIWCiyXZx/8zyoUJJpUvwbxsfQxsiFRdsQpeOqAOfiPF6OYpktK3QxwMyhmbqgxiN?##
?@@6xs/O/X4xVlsL2XYJ12xHp+ihvf1XhUsJaqNot5GFs79FxZwxnWfiIvFMTjPJQAJLfJO?##
?@@qNtAG/K8AvQpZSbMxMS1dNqemcGhnEoRz0gIi4Pynl1iuuvkPS6C3ctoIAqNfmcFVeEk?##
?@@XVaoN7oG0wRw7ZqSi8K8PGFbuopzCE+hF+p2xGFfV37J4G/OKgIaZ5VFUS9+Ejlc4KH1?##
?@@WjxvLuhDECiJcBm3JtxBRKCxsvtACAfMK5WlJ5W7Z2KuHJiy1Fsmq2YCMwtdpfKKyCK5?##
?@@rxfGhW+dhlbLndfXZ2l1EsX1xFyPPuLB/MJhwCsbzI6I/jQIGp+CNBquvsg4b4OXuDK2?##
?@@KI+061hgrN0hMnhLP4AzgCPAXlMKFYnsiHPJ8CZcKTrkscUPYj7tLd8LxPyNrJsnQDP2?##
?@@5ejNKfGuKjZU5QIftsBK88yv2TvhcnYAdpjQWQkDNNiBkiag4sHSWI+z/UgUGGPDqK/e?##
?@@8lfFpg7lOB9/W5uXqvNVZUIKVHNyxAisLc218rUKS+wt0QP3W9kxd7+vOXwdZ6pVI3Hf?##
?@@6xs/O7uhB70XwrcHw5fqI+4ed0Lt6i1uHmmK2QTgNUa1/Zkz6LE8HxrnE9Ws3vk+QMEP?##
?@@UOawuqT70IoWL8QD6Cv97pdHtZSyUKIB2q7o26MapkblZqVkMeiKq9gI5bcN4Wl2mL7r?##
?@@Nf6taAeywT8gydC25Gu84frHIFvV/AVYVOL5+Em66fa5FScoUcobPCIgc3jSXXUScAzV?##
?@@lkDo5Ktj8PacM0eElUaFxjv8WMoAra2SfnGwFIHqg8v0Ia9Iy9WOFxqt8YrZJunUi41v?##
?@@X2fO6PTAS8RpoqT4nCqll83CMihA2mow2/46WvKTCK5CEH7ukJiFJzj83yNKnylTPMJT?##
?@@oJanWGtwhS9xzpYXfCMP73ti4kjMyINc7VyskXIkccK7Aj7XwAmX5500+zpVPISLvhz0?##
?@@idHwZ0szPK35hursvBKiJzCGN6WaYbCOG5qX+FLKgx8GyA4ya3SjV0zSxPICnDTubw8/?##
?@@1meu/NDS8ECyYKAZcIbkmmSYtDt/a+zjaXhngCBKtpHzzOr1BPgUXj5jHeu2OXl2IakE?##
?@@94IkYKLtkmub6QBVyY6nKRnA30EA9vBemDWS63VT99UwjOmH+tksoKYPDPtRtcI12JFi?##
?@@iMjdD3PgXF5koygJlIBCPqxIUjYVg7ukvAva8NqWJ8jHwZIRA3m2A7NmloVQXxXywFnn?##
?@@pcEHEvr/au1a62+/U19IXwhgJHZMLwZ5htGyiJ92tjeZYBILiDgrxCh3fp+h0dOSmzXh?##
?@@xt19domKknnFYkINS8RlonrPgpuAH9MHMZ7J93VB6urKsyIpX3qKCXV79/+/KWq7Eq28?##
?@@g51+VWEf3txVItlFVGO3HGF4lD09gJ1FzuoMlW4WXgG7AbJJtD5ie5H3Q1dOMe+02IjI?##
?@@yO6jJjS30Sy/oPHDsZJJEPUjZB+TA6UW8lWxUxkx1pmChfOlFYCv0VyU3HPtl7xkUSSe?##
?@@beDavbIm9Xi/SaDmRZYr1p3Un4Zh2cfPInFLgFWiUYsnlLavyeF8rB4Yl1doyyu0fu93?##
?@@2on7XTjcrRuWeOyb5ZHNNCSOUFE6wqq26lxGzrYYfl+6Yj3BfcmIyViLMZkC5azgXVrK?##
?@@L8s6VjRY53DC1BF2b7pwrRqAm3bbGDrVemagCSWHeIoHSbG6icqd4TscBufxdzY4i8wA?##
?@@FOM3BFlrmXmKYi8d6sGKagxZhz0tTUktcAr7A18e7jWR344lig4LdSvfdGiUotD3bs39?##
?@@Ue/DEpbD5bOATchZMswCwrqPVBzniuGGrhSN3Mq7qYtEohklE5foKEHk02VyJpkjqeS9?##
?@@1meu/OGg9gLEZEYAxuetgMtfe+FDjXws4VkzqksQjrpWdOHOC/1pEKwVOETJ2vFwNYI9?##
?@@R5kEn2teZfjuIKw7q/anLhRJBt3gax/SnZlp3qtinDVMroaT3Ipzmrtm91/qDaxJNnAg?##
?@@dBxfJ12g45yelKYwsUC0hI0M4ec916A8j1DyILY0Ec4tpVjatdXEAifyRjYS6GcKyvqN?##
?@@rQag1DsVaJSeoUKOX/sOAwIZdD+lpZSZyoYCF/urESkzZBMENlhTRho9T6/sK6A/yMJC?##
?@@ZqRUUrW6RsEtXOjk0tL6L4WtBk7AESh44k8MeCX5N49O6rIvo2Zzzz9LWbEpvBD5QSic?##
?@@B3M+h2dYF3aMAIlE77fQmhajR3RabCBu/TrhJYSu4NQevWfrjvSGd83pZzIxXqdq3vVw?##
?@@FOM3BCNANfcb7lKSp3+TY3VmTvD5Ca/B4Uv1DObGdL1Qf/csvZfDiKsM1Iyb37kYAOBD?##
?@@Nf6taNmuXamH0D8DpDyz/og+/mllcQeT7FnlBEC343e68/Jx9299R9lLS5CWW6gvov1i?##
?@@ziIWOV3y8QKR5escJ5dhq6yBIR0YWVk+iAx0OCB4TuXhVOFIG3vWNZFisA7bJnyqsRjq?##
?@@l0n8PLs5ntRSa9rQm1yCDzor4mRWaLng9E8kPHeAImrd6PM5NmRDmTDuy9Xu4ZflUNUH?##
?@@pLn0uSpFmTssj3No/YWWduPEBHVJ1KgsnHJodPsyXvZdARBVfBrOfUrp8SssWZY2b26X?##
?@@VREQdBketMj3NM38WyQd4gTtANf6eyFwFXmPDigvghFcNx4I3Yde1RGBbxiC1eoIGaVV?##
?@@lkDo5Eup7bkb1m4+0XaXfKrhnYQMNHOJvvsLO+xpxwIk0wEA3hZdksdx98/VvO1+Oysk?##
?@@E9ojrD/b7Hi3byY83DkXwBt5IHNFKmyrBIW+ptdgloCl89YsCpHzPRoARQHexB9MnsKV?##
?@@YHDiQJZQvOU5+4+0PrHgxFVM6vjmwcLSzyXQk3uz2LIjMqQyUxr8ELV2wf/Tv6q6xLAj?##
?@@OSH5ynTil2ASELucUR1ZKGUUXyavrkLWHsVGLLOUheWsgZyWrfcNjjtn9Kk/W5po0Wf+?##
?@@quxmy2kgnArRtF2frRVCcJZHMG+l1rJmtFMCkpgc8J0ponH9VqYffgb40xKGBWsfgMKm?##
?@@szoS5zXFikfrNG83F4m2bVYCawDzg03dFn7N4T3vCBOt25Gtb2NsVFQtV3SqBIto63Gt?##
?@@DJ6eQbs5A5U1VeIumyJ/MqDRyN+KRAobtVe73ZlJCdbVJDWRDjdfjOOixeU3rdMXfl4Y?##
?@@LboUpQiZSbcIV27Ke8n3gsWRceaq17CWUZRg2Psz7cgG0PduONI9AH4CCyP3zyzgu/TR?##
?@@di2G2NAB4O1adMel+ny5v7oJYsOSM4YAsTnwroGdX9ZUuAySYwIO/LrMOl96ICc7WV27?##
?@@C5WL6ZnhfYzaZmDKFnG7bIVwwAwZ+2q8l9oGIV3nCVBc2wzAJlLl+FKa7WQP0bsA37Le?##
?@@xMxXxRAki9DiK16gAJwML1GNvMauB3V/0rsUjjciBXQ0TzmyWP6HCqHAe2X1X8eHJcM9?##
?@@beDavUmPT/JLdQVtW2nyRPY/d0TcqISA8w+s50SH3m8bYl43ygmxt4qyxj4DQbeBwcOl?##
?@@itkDwEGpk4MUfxBs8QwwB+G6RkqhvdJI4325nc/YZhWCIwl8cbzL09d968SaJtFwCpyv?##
?@@+6VxwenoQPt5EhIsmg9zzGAi3skgbYy0BpvvgKBQOUEKC5c4tdALzogj9cDnWWqf7in0?##
?@@JGxoinpJhMYUk/PnFPql08cTQ7b0xjBQwhoxbvhVnx9S32JWobtwq7LpWc/ZHbTgtAsP?##
?@@IVIvgfb4Wvfg+z4jTB93EwZeA3XU5cT29Av7Hbe32cut5R2lrrnXRqaiIpsWfoXJrtTB?##
?@@ziIWOSwnYant5IVuDyTiSxLR9Wrnh26Du5QO4zLbI81KuwYHrIo94VUFLpQaun33lLCM?##
?@@X2fO6HiA8x1/ewST/ZN0nHsqO5g65t8hQSZtHV+t3ksTP+/ZfBDw2WnUfEJHLNB3XJBc?##
?@@JGxoihrMRJxL7AeTdE0wH74fRfReKhVrVASCqlB3L1AdI6cIdg3g3qzYYCh7yWOATaql?##
?@@yfe2f1Qmq4HJ/wKr26cswXwGm4SuPjBQ+EGCStAuyMWBB2+Bh+esJz991YM7cGrLUesb?##
?@@4s6TIHGmB6OmhP91dNe2t86GJjajmeacRIm4eYS8M/OAImRILtEicT/qMrL29jK64tij?##
?@@jwRjeXqhZuOUKRKIgwzWzAD+uqUNfUl7fN3OL32lZB2aBKUi6vX0IJ90Nl2Q4e0/mfsN?##
?@@FOM3BBlzCmmWvmGCb6Dlyq2r3yxwWuGsfeAhlPgV73XWqhPjZTLF+zrIoNPd4ppQK3mb?##
?@@1V6bo+tf5frCOilg44aM5SiRwS7jOZALA0dHZnw9fzpzKJ1eqa9U6XoVeo8/apQp2j0B?##
?@@itkDwPHBJ/TsSf3/drHFzt/L52HEI2q5ewU02iBElJPTBRilQCvTigsN3ecPTeM1oHel?##
?@@cxNMz2fuSSb1xE5i0Lclebk1sgy6eUv4mvFrld7r4FjhwiZOhANczaNgZWBXaB04+jZn?##
?@@YHDiQEISYb8F/2/e0ABILFMX7dSmfH+YfPG6Lc4tXOiZufnbGraEw06a2L6+2OooOcfC?##
?@@oZ+6sD1gp2XwNN8Ng2DjvfaZeroUbDT22TRx6Xs6ajlGSG2ttQ6dO0+8NGs2DIRcjLrU?##
?@@quxmy3N8p7oCEg1NRJQmgiJQEO/mRwQ6zkpmpXX+cnIDyxmedS2czl55o3HzA1bx+X+Y?##
?@@R5kEn2ttJUFt+btxwTykBJEhhmHQeeCRh3Tl2dpU053TowB0lfU/o/4PMARB9WZ008Cw?##
?@@mFIPlUUavmGSBh3I/4w+eGKsfxNJg9S1cncd83/slAVERCFwkM5rJbkctY6pgpd7SIaY?##
?@@RYje7hQlmrLXimT8AY6Yhf0p8AVYQxoZ245InlNIOdvaN39IPHNDxvwNs7zLR7TRful6?##
?@@sjH/jsTpfaCmUAXDa2XG3MhxhcgIBYNHyyPRROktsaJldR7izA651a/3TOApeIIOgeB2?##
?@@M+2Gt1Htej8yhtKUQBWZDLd9g4MFwSgHKfXUiMCOIshpSjl8rkR1CSEFraIc8iACNih+?##
?@@pLn0uQLo1Is9tesAglkoy6GMXP3ndyE8IXqZoRFozWegCjcCdydm5z7iSjO98l/FBGAO?##
?@@ZZtB+qvemmksNGc/BId7JznRdCOlD6quaOA600ltB4iDHGePrYTlbPGiiz95qGYzJQfn?##
?@@mmM1RSIU7HthF5SZGjiSyrlcIAUlTlQ19KTXR1OiMkVXrXDr7E3AhT4kxfdRlgJT410U?##
?@@t1xeSKcHAS4pC+UcK0Iyz5Nbo7lOEQGUX7pf2jzrIY++Vc1VfuCQV/eMG2lkNS7FZpBK?##
?@@iMjdD5ATxzL/uL0G5iwBH2CCMUuBG2iakQPIfJ2LBnxwoOU2a9opewX/6WLvzs4fCFut?##
?@@kRWJKrhmf/v35NOfgYaVviPuMqPI5r5QL0d1zfKEy1vc88GFXnnw+n3KX4FCVAwKgbfW?##
?@@elDSOllwJ8RQCDyvFRGl+QaU1tV8JhOLd+z0gU+CWLYaOzqGS3/imrJF0iOfU5Spbf+F?##
?@@Q3e4PZLzjimpckrVQK2t5PpY2gMWY6rzKtnIEu7RYyPTT4xLLM504gTkhm+bOkIahWji?##
?@@pLn0ucQSrK4MiCp8aQvxTCVjK7xJLAzFzDd2KAzN2GiAbrl5dvSQq+bZv/Vc9FAp1tPj?##
?@@eUe/4b8eeDbee6wRmN9oD0TJzq2WhYona3gLMgYul0OygtUoBHoMMtImvMTuhDsSy9W3?##
?@@WjxvLhY+LnDhERFbGjC4iAKtA2w9T9DhGdf0qwI95J9m0VnmHKYLTMQHH8r9bB2iGEqG?##
?@@M+2Gt7zkMRzhQhh+K339+6gYqrNvoVGLkDeVfcTVADx5/b+wllzA+U+U6nZR8cdvANfE?##
?@@eD6siZeDym9OLsHfH8lo4owLpHboO8OZg/aENPrSMmXxaJD07CTLP/Km94bfHgG3473f?##
?@@9XH+r9ISh3sp4vR7zjUVyok6JiI8dd3Q71X3ZhZeZ43Fgmrk9/d1U5ESa+/Q0l5nRcm4?##
?@@ygDJ150pPW+Dc3qruuj1Z8bQzk+W3MzFDFeAYKS4Qp73CiRCzny2bItUz+mknhJZEErP?##
?@@n46U/5P/ThrCQcK5LBgnaOrHfMqeQ2doWWKFBRCh8hEj7Z8CGKFqhieenNZui3xsLjGA?##
?@@2HjVrDyDJrfNgIgcZTSQd3UyjQr0ccxsDnE+Kkpo1okFeaRgPn8eljjQXeSN67wR/tMI?##
?@@yfe2f5GUVudnzjeIw0o5yfyzkfjNR6MaGuziPB6LzAEwXr23KfwYI6y8x+DRuUtM2+Yx?##
?@@sjH/jpGzvr0/uwSVuEIo4Fvb9BiM6ZuiU/QI5x/gedhkLpFPvdPQF9kISHEZFAFrapTm?##
?@@K6ju9Alm1UeTgEAng6OTQ9wv4q7tLvL3BFH3VsJHJlPZb5b8tngRcaPFPbaeURW1bt1r?##
?@@IEocKOvC3/AH5Q69SJPIZFG2FkG0MQ3DYWHjGQqY/gXDn7J0ampsQFZG7DKwPD2FrEjP?##
?@@PUNFK8P5uLAHkjJFsiSw2yU3dcbl+GsBq30MdjDexm0S0fyDzx8sXhJiLhGjS10nax1f?##
?@@FvRdtXA+OOpQZZpEvjiHdRvyAIBaku+JT7sb8twtpnX45dfCbRFrPO08O9W8qbkEWcIt?##
?@@ywjcMIiNDU8icOpGyfpBz7UrzpLPsc9KUDayDVZ8HiMZgN++4pa16+NXKtOkwkrX7d9v?##
?@@oJanWO4cGw+jSiv8whmEdt4bhycDsocUxO1ItQw94himrYX/sP6CwLVumznebVVWdZaX?##
?@@XVaoN/qsMOhzneBux71dSSZvY4ya37Yf6Aie5SU5lsBWszHt/W9Swl/mlvwUQtXGELQT?##
?@@VhojzOY1GxdoXMumMvXZUW4bRRk1TFprdyEbZBdC0l2JOGtf3ceTy//qF7SZxBdx2mx4?##
?@@Z6xnq6aPL+zZbnxwG9OJCVHCepfQq6irMH5Y4j2h7BJ0mo9yl8qMexwjrRIMyIhx7COi?##
?@@KI+064T+YU5AtJQ7faMNBhotnhUPYXJGReMyPsjWOeW+OBCeEwf/iOfvK0SjnuRGDxSa?##
?@@6QoZiygv3bvdoSezE948V6CwuYmYUBrofdZaRoE+G+zIGdvBabeIrkb9qLsS3IXjwXJ3?##
?@@8lfFpk4Qwb4ser7PjDB2gwxhIv4tbDNfLi22Hqf7PpjptAuh86k9MG0Sf/qldnfUdZj2?##
?@@n46U/6l4ETxOPIHI4IxEU29fBJ5LCJAxWMvHS5GyLfjaTMPSBrKpC3Tx1W3LBWe8om1a?##
?@@5N+60TH1PiGOrTTGxY3BAxUIvqZ1WHGVRMITG+8+MLzA1XSYUSc9Zce/EPcK0HqKnyhx?##
?@@zRkC4FgXcat8Ybcq2dMdcRomRBT9rjisWC2b6O57TcFB1ItHxdLLQz/mOzZxFh/e9Qx2?##
?@@IltC2doviEDs9xDOJYTgT/7V5DqBuU9SpzbpQlAZDcugfbPAj/Kp1cmov01hoY5H+zSd?##
?@@001184d4UpOhddIQgS+Ld22ncLlAz0yY9do2Q5pHcv9OMuVywT2U3cHJt9r+xWiAQCE+?##
?@@IEocKEFY/gaFEzifQ5gWWPgrw3Rc/sVhqv1gDer7hk6BgBBP+qbsAuPEn3JB/19oAajo?##
?@@PUNFK/NHb5EueIAJEAUdlD859bew6w6O/DmpV1WpTMbQkdYNO3zvxyo/fSxr6XkOfs//?##
?@@elDSOvklMW2tDUgj84+XCS9/IcDq8JsGl7Ww2FBt6OvzWP/fqEMkUfBqkVlo0dcU6jVJ?##
?@@5/nz2vlxJbyJb9w8/hehp53rp9XA5haJj84HU2zZC49MamuOpLWdOKFjgJZ1W9u7qIhG?##
?@@tEIlP0Iot6OGYYEIjcIfFfWlZVaIU/RezdP/Mnh5uOvr1n2URjZXCGHSXkyBgXEM6M5r?##
?@@AT/Mda9UEHIZXeuMxsSdRuU4CmJNA1LKml285EQ2VyfwabfbUMtBzMtQioUuomN3xf6j?##
?@@EtEQU0CZoMukabhsUSp12Feho2mkCs5tryHCxUWcCdyZUter0OVxAeHIQBgC6SDiDx8A?##
?@@rxfGhSayQvCpiqx9wRpA1XKQ15z7h/dG/85OZw48CBJaNxWp9GbW//L3gps3tg2hkd74?##
?@@LLEBTSHaJ2aPZyKpvbTPb+sKGPzuXerdEUJcVRkrlREUAsIogWgCY0YruQJqdK3U6kQS?##
?@@ZZtB+gp8J3/d/FBty/JHjea5bwRYfofwvcE/sZa9RB6xpN/JHCIucxLSWnAkAT6gM+6A?##
?@@VhojzD1Ev+HOXourSoXXqfoj4o/V77KmuML/FUljiZCthC2X1o5Jwcf1H7+Z3tSA5ryW?##
?@@I2RVMQ6TBXcC6K9w6rvvSrcMtRB0oPTFrCUFt7H840Oh7Bic5Mt/Rc1/GyBWbjwO4l5q?##
?@@CHtR4IKHYxaUaFR9k43QsNexmoTjmsATs6e79Wp51YZrpvU7XzIvO2l8PFeAj8gpcC1V?##
?@@CYRlOMZU465E7YYkQ1PKTTKAx4F+v58/qem2kpjIFOyN4LWZK9sHdbWlkfw+hXoIX4fv?##
?@@Dq/E8sK4nJjLQzBTKqKtDnmk0BBNZAG84S07NY83tgMocQZEyURT3XC2IAkh3Tmm0Y0m?##
?@@W0WChoLsrf0WgGlWfpojxgdsHVVtKxwwqKtr5tvK+psL6SOzq15X7lMWZB0zCmf71XuZ?##
?@@VAn8HBMfduUsM/6AWCfothwp8DkzfCYOmL0wq1FdRgrGWN5t9m4rgEql2RQlEEs1BJnC?##
?@@sSnsNiqiS0i2RqgLHlW/GVR3++rq1LBS1p9txk9VnPuhn3oz26uOTKUQVwkdg+/YV0ZW?##
?@@6hMs4z4gIEGp/Iy2YVZhPZPIpxrkDnTdWqJgVTqzZRxHsgUUWC9vnR878vyZsRnVZbsA?##
?@@X2fO6F5tkHJi7GFWG1g9xdYEoxTmxVA4zy5tvaodx9aRdYxRHmAOH2JmjGZXsLyeYGiE?##
?@@0DM86cPZM0u/XzjDrdZG+vQfXMR4elMAFc7Uh/IBDvzObZaRm75p26Cs7EMkBwLBrKDM?##
?@@3aM0ZnOrog55Yo7t7PzslS/WlOc8/F4hLrYdg1rUzVBxT12fdjVaIa1bZbiqsLgZsBEV?##
?@@itkDwMjiGbWB+SuzaqpOeWmrNMr8InOTWGcaciQe5i5CmSrYVQT5ZEr/PCkTD0YEO06k?##
?@@94IkYBwbh+alHbRG2bs59R8vc0Zd9a9XBfeaUtIds45nh6UHMoQsuM+xHiNstoywllpa?##
?@@lC/CMxbqmIkueTQKKYUJShGwdUtuSL5syjjU9p3ddMQaTQKcDyWh01bN3rbr+vZzRFQn?##
?@@/baXcgUBzPwjkk5VLhcowOds444gLRX0xvRccVKajxNmyFbiV6JqZWkNzkIOUm5to6Fw?##
?@@6hMs45MEICvJerARrNf7aMZx9GpSLwZrCALal2qC7UYngcsf86VCzmTEbZTFoe2903pH?##
?@@m2tInr0gPZoNO53/5mniPbVhd1/rQB4Cw4V99jJgat32r+RgOeLyogkOl/2jtGEAEP+6?##
?@@RH/Llk0QwI+BlkikbvjpzVrI/lTsJ9LhE6QGW1bt69Yi+x6iakqI8H4GHyB9XqId1lW2?##
?@@0TxPQsScjesUGRQ9zSibRuCOK4n63/eULGaVOH1Bo1FdKBykt2Jy8BwKfhEMDh3RgbgY?##
?@@tlRL8EXtdWHobhUbO1PdahZJglcG/p0HgOaMjqzZVyR0mxnRjXm/JPqUqggacvO57xS5?##
?@@v6H3C5qNSJJ9DftjyQRebCEqYMJ2u/Lwk4a81kjcj1Yx804ho4QYpyt2Qc3i0W1BWOQz?##
?@@DJ6eQc5zbZF48IBE/tKjdXqOspjvoVPZkss6Jsdy7LiIsnWTZxos2EVOVhl/kdgSXsvX?##
?@@qeRTc7Ruz+ipIb0t/QDa1IrFdo3B3z4X5hn2GpVCMTXBCr9aWBq2ctWX3DytyKWRgSF1?##
?@@lkDo5IXG1M4A3l8ulgGxOERwv23KLVh9vFtxeSRsMYG7KaeRGnhiFH6UigpqXRT5tFKG?##
?@@i+IWGKPETu3Yf55F1iSTSgQQAtQCNALvQ5RklLbWELRcNeuUg6cUGhPFhHV1pliOBofn?##
?@@ADe5Hc1JU+gSMm52UbAuKhsZKw6hesQZaR0f926eCiGJdgCNzBUDqMbk3mzvvbnnNza6?##
?@@8U+yTl+Iq2NyZYq0ZleCnuOm+9r3s5BzpOYSx/EFjL4wJTXjOMLlMlvayYz8Oww1gsNV?##
?@@rg+zLR9+T56QZbqD2cKo37TGuO/r3ygmOnKXZjsKa1Kmh1b8WvWXShhFIZIDtQRt/r9a?##
?@@f3sx8wtJErXsDZJLq2LvdfZB0Wa31RCZ20nQ6Ni+WmV6wOSOnEIoOi1AdCmcWivPeAqB?##
?@@+Is3uK3ZeOjcdR7temSUZi/2t5Lsn0Mo2K2TMYISCt8U9R7ZrBsQVQHdDOpnAgNrYzes?##
?@@OSH5yoqtWV0Yy/New+rmp25lHjNXBJBrv+J472RE23jcNYVr5ZNtHtIrh4YRgmxQ5kiK?##
?@@6hMs4wUpaTpSwUSkVAUSiMNejOFTdc0y17+WafBTRacmTPtzsl9W6ngm8k09tI4tO5tm?##
?@@b/EAbgZhVYEIK8wypRim053A4pacb5ug1DxqGq8PdxaPaiHZYpKuEk12wTrVMEXOrHJL?##
?@@uGVyoeOBNBHVg4i2VuOiEot5PuIEGzuJCJ3+HQiGBMS+KEmRxkJtSdOMOjKIlyJJYosL?##
?@@ab2NWxXdT6uCUzxPMstY7miJ0t1DeONjR5ANwijwT/szkrm9bVfypOnTvW4EdHxNkcrx?##
?@@GhapFrUjQXv01Ru1qrF6tXi549jhVdPmZcmHiVyyjVKXCRqyPJ9zm3expdA1ec+Z26Xd?##
?@@UwDpw2rs3Rs6R8njdH9bS3emUCfhJh2w+3EOpk0SBarkOTcZHkTzzzzPrXKHyqPv/i1/?##
?@@JGxoiu4k/dcR51UGOMiFP0h7W+qswhdXVFzeU5ra8GqOGD1DYlqKGAWep3TAACxpYyPf?##
?@@IVIvgfwiL0t+lhPrA3npf+nwqUSiRK9BYtq5cAkLEOVtrGbipnVM2smN69cVDrsKudmg?##
?@@asagtC7hmI69u2o6nw/9sKGm4j8o4+jba9niQWmrmhSfOYcRFlgecDwo9B5Ulg9dOthU?##
?@@Q3e4PaMljZJveNROzlHdEyP+nfHiVTF2CPtr50WasZfSw/s5waS6GvIfA6ExnbIDOrv3?##
?@@EMDqov9d+PBKotW4qbWo3t+ZrPItM5wFNcvrzGVCXF8H+mfJyEAl84uuNAWIj56jmL7H?##
?@@JXV74sEBOy9EFT1m5qjgxzLeY32d0G402qAEu0YTfY40pOMdCMg8w2Gi96K3Z/Nn20J4?##
?@@Jn2OO4fBzj8K3m1HcILokUKoJPMcfhtTidyJ8sPZ1372gHwrKQmpSFZgD/sLty6B8Dom?##
?@@R5kEn6Kk6vY7V+QtewzA2M7OHX9QqJ/wxtQ5pXTDHLabtg3wNMT4ZSwGLUFhiigrjtNU?##
?@@EMDqosvWj0y2XaAJbl1LN8fW+LZCxqNYwprcBOi7f1fnkhXdJ7bIeUlHVTu8829XzpP7?##
?@@WTRc1U2SAMGl5o7J/XEsTg/jN8DnCHXGO3ICxZ5WYzWVrmjRQfn46dIYI40zO7ddwjaf?##
?@@itkDwKwGQTY/QLfmEzSpevY2YB4nZH24XJvDFTI6NzdL3en+QrWbbf89VjVSYajFXp8P?##
?@@i+IWGP9FiahHTAsFZgOKtLpIIn1owOseUTE1Nbl92BLZFveVhA5Wd+voRwPYx3uluU0a?##
?@@PDsy03dbtVUfatAZ9Y+j7innpGTwrpFyG2YnxfE8SUGgSJzAKg+1hu83gnrRCMdu+3KG?##
?@@yfe2f6wn8bs4cy10dvR9CJp7+QKysNwTw0JfRhkLkBXxbIWwKFStXs7iM1WDRbwZ1DBw?##
?@@vpjksxBN6Eh4FbztI0UQbsG8MKoD/jxYQ4RR9iwJpau8ofoOmIrQOP+1JWDjRWTfBVVL?##
?@@v6H3CwJcCInJbydKKexmu+s0OACsRY3r7ouT2ONZP1vehV06Fve8hk6JGbRf5yP6/KPK?##
?@@ADe5HR+QkPBDuZCJWx8buv4EOMJuH1+6jEOxTxfcE58JLVHFc0aWrAYJxMMqfSGpELNl?##
?@@0TxPQkHqDBJTlfCkIgy/VkvgpWJjItvjRr6NadZ2MuP9xrOgLQaOKCgUMaySHstrrGZ0?##
?@@3qtHv4J74LR3+XXPFNugLo7qv4IhsyNr0TWgUerTtQBia2CULjTZttDL9fedxQ6oSzuu?##
?@@H0EJ0P0C+CLum73Ao0lbx5xth05L1e72NzJoXVIpF7FyI3MvBi5aJIyGCJcfK9XGzN/Y?##
?@@iMjdD2E6ycsxiP9MRSnK4Sj8uHFhCwtQPFkhQDLxJylgbExzGO0wG+j0eTTSzQLsIiwj?##
?@@idHwZ49ybvW8yRgwRNHq5JINB2pnZnyNV/cDOml7LeNVbiasa+hHballlJlFSqNw0Ia9?##
?@@IltC2RSRdQ3ACK0YPMQd5b8XscBr5kTzaRAUM8HdG8K1ZnBPhuwUviyoS0tyNvTT+a01?##
?@@C5WL6ZjQcNv/mKSNs3Z/lb1RpUF+5ALaP8wtS8gsVsOV60gr6NF1yIAq74voK6xmVTRu?##
?@@IEocKD7Wt5QSdjx2I4V6kibPCizZzsK0DqFOcQtynNAnQ9j0xXwm7Ug21goYKhLMTBCg?##
?@@+ZRLEV/N4dwkqA+n1rmMqmjzcOiSf2U3PiNBWbDnXZHYFVJrl0N2jY7IlS3/RZSi0sd3?##
?@@gpRr/ahOQWr4lu+ICm854hAZ7ZAYKLj0jJbsoYwl9bdj70VlMU1Dj52j1W6mq7quSdkp?##
?@@ywjcMHONBXoeZM/WZU+tZcVi02DW45NzlZFmFA4GifHKY48trfOvcp8KSXiS0hvE9q4l?##
?@@aLV6Aydj+gd7M0sO4lhRc4DjlZ6mSHQc6adf2Dqe6S2+R67woT9ZoKUEtEtQl/CmUI/z?##
?@@sSnsNsiRKn8wfUOVXrRl8VcS11UkZtKFiAcmKZuP9Y8OA9ggTTnS7ciJPy1cWHT+/Bh7?##
?@@sjH/jn/JCWUIj7G/cw7wDvIt+Ya9qloGpNopt0XCyUGTxIF6/OOpGDpX/ilYJQ8BE36R?##
?@@zyspkXsKNoEuDEeGx8JApZfUSGKy4anEFIhKB1EUhYEXJkRHiKpiH5UPQuDHr9Jy7osa?##
?@@wKoKZCeTRr5uD+/CJlRx2zrWNfXIinpTrrvWkOWpWLagNDgVYbW7Q2TjStIOaRh61F61?##
?@@mVoi7VrwSZ5Zjd76zdtjNNd2z4qT7cECv8xPus9qSbFinLcMRbJUBe5CI50c8nHcm6ih?##
?@@Hjn1eE2rgFzaCJr2ENM17DbA2Dxpwxz6WMvl7EOroIPU7t3MKdd8u/D8chFQTbb3nKLk?##
?@@cxNMzyfwF7vr+xCybs/odhINWFIzW2KCMMtJI8xHMJTpeu0RtI9J3ogCxMqVD9McJZmB?##
?@@qNtAG9Ts4m2Wp1AZEHRBh/ArAaeSwCbg9NWB2Ss238vG2ajmXDzjIZbkDQtn1vL+iLPO?##
?@@tUs4l48mKFYnye8Agex0elTcOwn8MXKKhiC60OywfRz4o+GqWDzvLBOyrYUiHWbFP+il?##
?@@8lfFpqammohTK616tPSc+9rds0d4DWWYXJmetUd0JPtFcW4gACNxJSuFgtnbY0JFEcGv?##
?@@B3M+hwd0EClW24r4saCFgbtYqI55DCpfHn5o3jof9XtvND48L5LqZKcJB2/BsnosfJL3?##
?@@vIe+Aivlqft9sr19BwikXbFoSPwL359eI0reGRfJOI0HHG3jA13dDAXUJebSbb/0xU5k?##
?@@AT/MdfFZOYsmVV0QldzyInIOn+17k7laM0TDT4+DCAjNtJohQFOD981ytAqKV9SXqZrw?##
?@@FvRdtW2lSnMN6A4wJBSnKfiLdslR/F4CWzQ15IslGojLZY64TuHpxKXGlFCR6cdoyrUX?##
?@@94IkYIaTxMVX6UyoSwQCf4CEFrb0L5bnV87KcjL5rMXvE8Rv1E7QeRlEncaLdMVjzICE?##
?@@LLEBTSJk4vpBX5EkR4mvK8p7l8kMumfrhkmJZh3S0hcp2mxFRZGyhrWinIQLIqoRPTeF?##
?@@xdVqHfEHBukd0NNb62kodoFRqj8YcqybzCUccoN06vMfi5EPNM1/lw8ZrDu9OiYFh0G7?##
?@@8lfFpkiWf0Q/qvftTWPX5iKQQpW9WaLnojRE1PC+MW1qvHlFHTxMdsBNHKQu3Be1rCAU?##
?@@001182Qh8AmIwEEfLwTTYTclEFjbWEEHn6UUaBaqUxcKw3RX99HB2yCUUMX5z/XWTOMV?##
?@@EMDqoka2bsu4ZWxCqkODnToGEKtzUFwDROP6GJRkmdFwLh4u5H8yq1w5Y4FoE9WzxkG8?##
?@@DaaxmRGChqG9ZA+rQ0fTIO8WAM3Ali9n8Dr17a8i6Y0bm4vbnh5D2MV6nPiDQCXZrP9y?##
?@@gpRr/XWYrALyHQNk8v/Qz9ifnGICAxyMAAvQ29TAmsfysw/4q2SWUKLUOHlKwRw/m7Cc?##
?@@5/nz2lx/S697sGCRO2ZOSH40gt1pADGSW+3VAV8v5RM0x6BvfAZupB2T1Y/lXxCIzSC/?##
?@@1FaIS2uFcAvjcp2qQ1pl0YoQS9PtS/7/XizFI4A0/kxQcgB/jaxgi/XiwbbKV72hUyXO?##
?@@mVoi7T/Ct4W0pxmCpPP40yUqmAVgNYf5Tawi7pAoMpjz1fkrFr9mLU3RqhOAebCkH7gV?##
?@@quxmy+GGkATHKp3QRo6YlFguq7+SGiflfy9KRHF9VzRD9epSn1HuVQujFaYSwmKyIWah?##
?@@C5WL6bwXyyPFGhFHwpDs5dovHUUo1lwgM6WU9XnKxqOEgZGbaz6s/0ktq4jR0lM04cWG?##
?@@CHtR4JHhY85De85ChHprT4GOe2j8+cgtqA4s6AcdfN4kaahMh7HTP2w7XE5K2F3gvFkg?##
?@@gYxYpL7kdnksx+1hy3aRb16cprEVwnoYki0jA1WPhadLQOVFr39W2nYYh5tUfACnoz2r?##
?@@2on7XZfFSpwcBxIvdQir3KL8lq2Rl/9RYWuJaC1JNcgtGKGg7+7hHt0WmNVZx3Hd9UEI?##
?@@ywjcMDLVn/PkSF9UPlEYPuIRq11wze9/iS+nbFyie1ZxF/MoJjtex+lWLYPtaVnEGX1I?##
?@@MNNNrvx4aGOl+fTnjCrDu1vjVSDM4z1VqSDZ2o3zo6PsRno+F9BkrZBrNWUCOyHbnFtn?##
?@@BWIY1tXkVXOfEOzZVJ5knLBvbFn7ZnBQLWrshSKOzWNd2fsabLptsUEUqB0ss+6oWGN2?##
?@@bujtFcq7sZevnc29MFxr7WFiQRbljvZoVkJBFlGYn1kvVWCmhXUxQY+pTehg3XqBHpeG?##
?@@Q3e4PQODDPPabDrDatCGNxqAZwE9OirnQYzffgQLy1Av/QnKExQ/WEjeaitNBniGp55f?##
?@@UOawuo2UVEzI8YOjB91EBYK7heiRzwGGTt6YJsQOpKfxBEHORGXLehfY8NSduJJ4HbwY?##
?@@GQ6Wvp01Ewiqg8OQSQo9jJ9/GSajnJUwiRWZOfxcANrev7m80zlx5YmY069IOUaPnDsC?##
?@@fnIemzgE0aU8kDoyebrAsA1yoq/Fcx3ehfVUvuouqFAqVMaMZ5/k19KdiMlUeSYgxoCD?##
?@@q/V5JPFUB1i5ej3MMICxPhSnaVtqFk73xcBFHKLvOSYsURgwQ8tA+2Y8B4HqSq6w9VuZ?##
?@@LLEBTcpP4VG7Z8l3xrvKhqC/mf2CWn/LmqhWukx5pfr/ajPv5FFz75r/E+3zGGmOJn5S?##
?@@CYRlOOmzpDrfw998yMzj6KV3SHu4h9EgTS/Pipx/J0MlcovVgw6o3+67xVsRuA5v3Rvb?##
?@@EtEQU45tu0Wxe4647KfOsW/ZnSORjv7S3qcHlhZWS/XUi+LZi0hY+6XPM8TfF2GF+ks+?##
?@@M+2Gt3IHKzJZum5VwHUxhHHuDvdxaOmuvJEgZlbY4KET+Afz9Y1v5og4DWBhCEV6ZzYg?##
?@@RH/LllSQtAlk5drsKR3VWviy+xu97vJ15iKyXvzCsjOg7T5E1U0q2ZL5NNXQMrsL5W1I?##
?@@rQag1JsVYtFNIrOcyScpzhcgGgukIH7oZy9nsJl4UWb/jcqtFv+7SjCARqUOqI0ogoSB?##
?@@8lfFpoF6NzsCnz/hFpQF15aCXTCWTDbzTkIDiqBmddcKD5lirQR+7mZ0T1hm/OxuPoYR?##
?@@u3+rquvS52QxgU7o35ldJNHIHthBb7tsOn4wDBAP9jOU3emLVq8TMVv6wJsGszOD1SyG?##
?@@CHtR4I4/lSbHcqKSwGhba6AfmxVPTJ2yAkg7cLyv+KWG164wDFJYmpcjdc/xgHYWDOq8?##
?@@kRWJKqM9tEibS5oHsxXrULfHrieNXEgbhTPbIncQVLne5Z/s4f5NeXps2onBvMvzlzIr?##
?@@MuVzX8WOYL1BfZ9HH/abDJ4cwQ6jKmD2639s72tJJC+709SxLTyC/7cuehcb1wcfYNDo?##
?@@5/nz2u9BPYw4pLbZcJTtjBhZY31LGWzkkgGEK53wFXQnVRaMdevK1ZS2JmdrCWx5G2T5?##
?@@OBjmca4Ke7LSCVLCa8swydhsXjppt+mCGn/b1aWyyPj7C1OuICR6eqCYIAhujKiuw0rK?##
?@@Nf6taC0H0InA0ROTv69DdMTmVW9iGa7+s4NKkDUoI8rqHUh9oGbgC5CSy+gXl+AWmTae?##
?@@Dq/E8u/H8h+d1PXnwbsPiTMERY/Y9xKgNQGFzbz7UdoS27uBOFgzZmnEgOwa8BP2H6Ky?##
?@@R5kEnx/G1mG+dvAX3QC2pYpA1BXSuVF+/aLM3DE3wrXtCoiuiheN2Uum7PpN7+YLRinb?##
?@@JGxoiqt2BsVRAKNRDwOZVOnXZY9cSOS8UXAhr+CqyfBj2K8fglQ4vT4JJRX031zsUmhX?##
?@@pcEHEgw+sojZ4p2vSWNl/F2qwctobwVCw8np5Fq5rQ7bOBRyeoQzEarxU8ZJ9eErC8Wx?##
?@@SrM+qNPYZwzeOasQi18cNGHRz72g1wSZ69IJBVVeW13f/6kmRRBb6mtroOu5r2yD6QKV?##
?@@w8NEbTJTjwMeaOcvMcysQho5mEK4A8pCNUWHgoaaoHU9J4MwqH9Mt4CTa2hslvB1WXIZ?##
?@@1FaIS+hfK3DvrsYBAZIh5rVXc0siN8/vOzcIFbtgO3O4Jb0Er5uL8oXFUgnwUYK9FxuJ?##
?@@oZ+6sP8nPuOiutvP11zS0wu447YPntl2Hxxq4OA3oQyJLHkH18rt+0zEpXjOooN2Sbhr?##
?@@AkjfzZVI3Csiw6ICMlBfoLV7doz/B6ufpKdP5ZN8SIC9/s5y50ke0kpjY9gCbcsHDucY?##
?@@X2fO6PpbQ0dAC24z5PedL7H2kA3ZsKJCO7PxTPSHUFFnhnzIOpVj+xoYRvcjkTbSoO1a?##
?@@PDsy02UPxvDSRclRPfdhYXPP1c7SnZzrtS2zot07WSM5rd0OlQY75Gx4IYmbioHbH9A+?##
?@@QWaSjdwAYXCQZlmsptZiqR3s7PIXvVm0t8H5ym80nx52P0WGtp/GvtYg3z+/Q4bJDMTJ?##
?@@bujtFQVDRA/QDRv8g+NsVOXjIPLOT3qUM7St9UfK4UVYMiX577sLIASzwxPr+5uQHHQB?##
?@@e1jlkmPWrGowJevBkCHFYfI7RO3FLQ4Ry7baqZzbvtRzZ3mE6C2knYsiMWI09ol1G5KA?##
?@@RH/LlhJRD2J0uTWbjRB2BID4tGnEapIZt5p4J4ObxLJ1fCnZ6p8Z1p5KPdive8nqXgxD?##
?@@xdVqHZN/+wyeaXmACIf5uWpfb+eBtT+8HfLySx94OCFBlfhJdopW28Z8cXRMhnPklCQt?##
?@@hre3XiWjUZwsuFQRr5v4VlwoQyk8gYJGPtZPw5IYDxbNMGwH4yGJf/rFQ9H+iKcU8ukg?##
?@@+6VxwQvxFOPnQIjKUobQJj0Gu362UXJ5IDOlTftP5sxXIsDRYlkccT5L98Ei0Ok0UOxq?##
?@@jOoqcAfJDzrr7M4X+dRFlUHBFNW+9YadPqlF3lJG8Lqhb255UjI2Lv+nMe38SyK6X97C?##
?@@ha6kBrRaEA4o9I9Im/KTb4jqEBI+afzqZGCr65ZENQ3m2cMB7C4ZzleESeX5j7orYuY5?##
?@@YoEI8VMJPLc4G/XUG7fzX75BVFYS2keySyack0kuB8HjK4eVWgMkaaYONwBIOcSpjVyU?##
?@@6xs/OwohnuAq6idI8gk0F+Oxk2aw46OgLfj2e7rOZs8lKLoxzkYHPbLJ7KjZggJAL0/y?##
?@@2HjVrD3oH+AFwcijmEp3c1BPD2Yr+6HS+DuiiTWF+v+fwwS+3O8DUs5AjPiszRWYYSfn?##
?@@BWIY1uqcG+L50AdoSEaUdAuvu1f1sQb8X9WzxuE/264HI9JSFwk7lDUR35JXIqIl/CKJ?##
?@@psoaasaut07gu7fMv76nMHROlMM3hfsqVv/WSRsmRI2ZDNs0+SWF2TXfIjMGnzPLLnCB?##
?@@b/EAbsrKJ5WgJvChFNQ+Sc+QtppQyGJpQK9XE8O5yGEw1aGvodPsplOtZo3QP3Etqlmk?##
?@@qNtAGxx5hF6iykSBnKq1vsoNGLm16Rt38kcOcGdZgu8RbKcAwq/he6xRo/fUuIGdq0U7?##
?@@5ejNKWVxbumMwAOh+vHK8KAZsqiDjJSxFozkAhKvxBOKAyWpcz172jO0lS1GiJzlFr+U?##
?@@RpDxRvymcPLYJBd+yDrazYcQOPM5DiEtk52JNIIjJLQsU3fuvtoDPpotMwxIPhnMem8p?##
?@@cxNMzzG9CHiEQc7bj9oKUDs2aLsxENYauUy2aiqTX6hKO5eiwj/x33+dr7j5+0RLw7rK?##
?@@0DM86TWfNabNCoQsdOgY0bD5fQXMc5aJWPrlMHN/S23BbxIiDbALOsw3BgSD4XOa5T4e?##
?@@Tc13sfAT6bZxpx6ErQnLG3QUlNpOUQ0iYMLUHf+BNzb0uWuOKERxR3j6FwZpjZ8YPpCT?##
?@@jvxQITVNSyh9EezwYcdMeNn5LdkA+PBZH/JgnLUXh0izPqombmZ9mqwOZ88Juj9QXLlC?##
?@@x+aQzkEndRr8o1QxCRCTEOlzw5fTg11MxIgQZvW5J/b4UaS8cWdIP/bIrFHG5PtiIt51?##
?@@5N+60UAC3x64JRFLOziml/wbsvbBQl0l4n5Xug37Wxk8QLpvviOoUXL+3dnUknEkUizK?##
?@@vZDRWt5QMA8DfT90zsFsUD0uhJng/yKaF+GOAioEKpaNOTle11/H85EqaJCr/vNFUnA6?##
?@@VhojzDMLiYWbTbR5d5YvOENwonywF/YzTnGFLquoJwodf2ftBYZOOnHjAM2IG5YhEjvq?##
?@@l0n8PK5zQ17wNawUBTngyWVvXoGgNzFKIxJKngBE2jWU4Qr03Y13ZkgHkjwDWBuORF4a?##
?@@xMxXxUFM3lqsh/zkzVsc9nf0fCVA0Aq+szZymxqMbve5sbPQ8+xOqjRhPrtD+XrzOXFK?##
?@@QWaSjQtnzPo80q28wOJazdLXIzUvbPh3jtmiLAn8KeZQcLxi88x8fg3mRNTv+YFGckuR?##
?@@xt19dn8XcMreJuWrKLWObHQKShmTuRZb5sWwAKRFvCbem8X/lrCYhCFTrb2eFK/zfxf6?##
?@@L8s6VqEK1YeikOdllTBKigm6bWrfILCleig9CqprzaL8Vw2ieIW2cSA8TWaqnCWVI5NT?##
?@@sCDZ3suG8ssZUFAy4YU3EgOs9Hpf6vc0iWSFSQSqqPGMQRyqzAk1BJyi5bwbN5o3laQB?##
?@@/baXcgfqKlTMPBTm5DvjKpQy2z3SnCiaU2njaugqmDYud+etIzqn2gumjtQqaO+RtUVZ?##
?@@Xl+7j7R6GGSQ6IjL/VsSflm1dKsUJOK1pvcY4HIAOxRvWuOfpVxp8cX2AFXgdkRKs/yD?##
?@@ywjcMIqIA+BCwm0OKLqWbDAZszAaXdUpkp5yD0BhZvCV/kxZcRXaaE0iw+PV9t6I0BuD?##
?@@nHRb9h0y6hSr2K4kE9kdm68Bb8+GDBOnvThPuY5lGg6htvMWJsFxm8hvrOKFv9HwLkDm?##
?@@3aM0ZgTBlAwT3egJTGnGrDQh0Vd0HLocbTe3DyfKFodAyMTp4EuHvC3ReGIPIm+yg2tZ?##
?@@8lfFph6DkHlK8Gy2WOrSs3py1Sp4AJvnVRR/r+DtscSZyw7w72XWAxjGhV3QZyDlsfu9?##
?@@L8s6VjM0AykOc9ol3dc9XYcgan/ZtAY2GpilautN7vphmdbawC/3hgFhZ01PeNBoeS/l?##
?@@cPoTxoQCrGb/PHU0jDFk83VyJCa9mILAxBYpLvATTBd2z540xudnuFIzKNeJD3je8eDO?##
?@@sSnsNhT0NuUjpIUynVTxUV+iivg8YV6XBNuniiinC6aZOyXztFmKVD9Ho3py9GUAPLy4?##
?@@elDSOhiNmpG0acXMBnPCuAFCZXBbEAo5x4jC9j2Jpo320NsRgjl4XL9dmY+mr24jsz95?##
?@@P1Rs3GnJrNn7BSrzxW30cM3yYtM6mFkJT+yTtI4Vt+kCUVqK0Twin3VG4Ui472A4G/wq?##
?@@zBHviEZcxOxwsc1vckX92Fn48YakUlbQBboZzzXrKAkp5OypR2C7JDZy7/vDEyVjSMQ4?##
?@@pcEHEr6eZhbfl1euEUu42BFarI6refliS52XJu2/+oSNngvKsQ0jfr8viomnGWPFbiIV?##
?@@Dq/E8ondqFYAzI/ftvGRgb07Qhj4F/SYCGk2FmYdjp5ee/jG5wnu5NnHLgKi7fHrTjd3?##
?@@zyspkePPi9VxLHqYb+N/zKRyyTjrmO5djDSkz3Hf8bz23ZN98E1hYakDX42oDrJTeSd2?##
?@@dBxfJ755AFWDBl0tqy3qaDhlCBFZDu/7P25YWF1lrkcnrk5SaYFpq0fgFi1uFh0E1pW7?##
?@@BWIY1hOl9xa0MqVgoSIBXk66IDfLf0WHEvDSCEIUR23pFiwPBccjHWOaJfkVkvlKLiCO?##
?@@tlRL8AZ+6W2KEEUmAOHLTsJcuMSayB88O3y1TJREDk6ChGCq0FH0IJMXgzwhM8Gsmefk?##
?@@cxNMz+irrUEbGuCwBQhTZ8SPCVqUPWPXy5eY6xsGxQnAP909l7XoAcCBt+eCGwFcG0wt?##
?@@TMRkWY5T7seDYdGA/ThnmBnp/nJ/zxrO7VgLgQlR9XBvUMQ7QHiztCdxsOtrSVF/FphC?##
?@@cQImHisyy6ijq7U0gMZcZaqg24uOCWl/n/dTmk0MwrnIFg7hycRHUBP7EdIh8BE+L9Ci?##
?@@noWBpzsRBRlMSJ94Hyxcl2zzOL4hN7bsE5FbUvCWNfUvYH08rFrhO1wgBVqpEqiA1YIs?##
?@@Q3e4PS8x76yeuFkJZ3RsOctyy6szjdMwLy1OkaLPt2MRjjA5XtODIvf2RFYaMXBreyc1?##
?@@YHDiQJA+l9M0SJs9/5O2SIR5S+Wko22WwEQ3cTN5bQE1d5r9yqukA0/6reK5KNeZV7Sj?##
?@@5ejNKeiwhN8Nq5Gt4iGT/Ac6jzscD7xSpIchaS1nwTmkqpChUyEkTs9pedxyh4OwJVMo?##
?@@di2G2PwAv2eg6B/PFU2p0UbiJinw4U2SXdgUE+9QW6x2CNtU5xShWrHR0g226wuMfav/?##
?@@q/V5JNMczwdDyytFKzXt29x3RHTFhdNFUJWx5iQlSTR7TjiWLAVFwqNSraLWLznH6LC/?##
?@@DJ6eQTMRCEex1oxExhopzOiAocN+4rlpjXxZ11z3C1PltM2xhRoP2QcbFZOE8Q+jeh+L?##
?@@DaaxmXE8suCXT2Lc8RwrgKNR6Wf+6X+V61LSh1qlYpOazUQzVaaJ2kmTLCk89/L2doba?##
?@@elDSOhzfAp3MecvAjxEM6FszL6hqSR31IfgqEh6fS2hmIBnPKDClRvHHtz46dQzPi7Js?##
?@@12/BVGm7DfmC7lT3kYvHYXKUHTSd2KUq3Jdn1gheIQCF3DfBF+4p9I8Kl2iHXziCsH/n?##
?@@aLV6A2vZ+HdKhiTjsNodNt2C7nBggljhF8kpKq4K68WBssP9foAEbHx9T0sTEWBYjPfL?##
?@@9XH+rxC6ZLett8Si3fKoLxWW8Ydz9nPX6cVEfx3rolMCNCYyg/uWVQSYerNIH2tbu1Rg?##
?@@bujtFYNZ2BVAAGlzg2hV54dqvqZCUwPAZGh2npaxsIxbqx+xqbtKmPEteRtNcwqOf5lB?##
?@@E9ojrA2LydBvJ43pRsePchrBl20Nxhj5Ekoet8pCvH0dEpGE8fAQmwmLl34J/r26UNM8?##
?@@fGH46ryPEIfOH6vsIks9qksURJ6q73Im+W7uAZuCTcAubhYjnxNqpfvqoLm05QTV6r7t?##
?@@+ZRLEUGqzKxPkINsl7V8uP2+tBb4Y3vLliRUijOY0Iv/Af7vDdxfmHnDIzz7MTcXdJms?##
?@@0kRimh6mIM9hj0QaU0RAib5grjxYXVr1uLPmX700updn0/CIiekox+t5FYlf6VYT9Vq5?##
?@@/8e9IzDJ1wvwBdmBWBFaaIGxy4Bow1yLkRC9MHWIiTusOnO69Ma1hmZFW60VbpYb6XgT?##
?@@2HjVrPGO3zm1hM6WHUmL4bLJYKIcSYk8gxShchob2dveQeUmXAfYL1qN6HU388jImdQc?##
?@@zRkC4AC+izqVdCP1brUAM4yifJ5dvHZGDVR0MrMQIRnWLSSOO66wds4nXjkx+Xrk+u98?##
?@@elDSOvzRiJ51kCfsSgJ5wzj+9MEGs/XhvWgHrQby/LCRKHY4ogsBG0MYBaVDi1ZEfIIP?##
?@@+6VxwXmGdMA1rQ7XUcGIE+794GchZ8FNmFx3AE4f0mwMrFTb5ELA34f3jgfwh0uYewXc?##
?@@yO6jJijmotVG8l0KalL5dw6cTnBHI3Xpk3OR59Qiis2hRtxv5zHAjC22q8ay2LOn1UoK?##
?@@eUe/4Ufq5Uw8sJYohacPQvvuspaC9/d7nDk+jQmOcmUQUXhR97ZcalzW4rAnqZgp39Qr?##
?@@wrswFL09lHMPZFLLgmW++nFb3x4VEaW8Kt+Z/jc1EPK5s8unMJEMz7BLuKsZu/EMHSZr?##
?@@6xs/O8AQLwZEkSZK9XqM06O9oG6Frjb3/xFrsiGjLSyzvyqzFgS9fjm6s9n80GgsPlri?##
?@@JGxoihPRc+Q4fr3F9TCYQm719yAeRWx+WIwgdzgXAIrJ39Gr4AKQtHv54aZQ14m5nyc/?##
?@@8U+yTuzfocylqaybk/xL18JCaG3/w7Ao98oNIfOT53ocJ5JnHhx2V9STpfS4yaEdET6K?##
?@@+pxeaYgPuenKfBLAWjYeoLp1A+OMHZfXYGQtwWKlx4o5j6e7zlrXcM01XcBnrYkcWZQU?##